A


 21 21  0  0  0  0  0  0  0  0999 V2000
    6.0210    1.1400  -70.2890 C   0  0  0  0  0  0
    6.1970    1.5390  -71.7700 C   0  0  0  0  0  0
    5.2690    2.6850  -72.1330 C   0  0  0  0  0  0
    4.6770    3.8360  -71.3390 C   0  0  0  0  0  0
    4.8540    3.3940  -69.8900 C   0  0  0  0  0  0
    5.3800    2.2210  -69.4040 C   0  0  0  0  0  0
    5.3300    1.8810  -67.9820 C   0  0  0  0  0  0
    4.1930    1.7500  -67.2680 C   0  0  0  0  0  0
    4.2220    1.3710  -65.8620 C   0  0  0  0  0  0
    3.0570    1.4360  -65.1470 C   0  0  0  0  0  0
    2.8100    1.0460  -63.7430 C   0  0  0  0  0  0
    1.4780    0.9710  -63.4670 C   0  0  0  0  0  0
    0.7190    0.5500  -62.2940 C   0  0  0  0  0  0
   -0.4980    0.9420  -61.8180 C   0  0  0  0  0  0
   -0.8190    0.6380  -60.4130 C   0  0  0  0  0  0
   -1.2400    1.7410  -59.7250 O   0  0  0  0  0  0
    7.4920    0.8960  -69.9020 C   0  0  0  0  0  0
    5.2820   -0.1990  -70.3360 C   0  0  0  0  0  0
    3.9610    4.2380  -68.9790 C   0  0  0  0  0  0
    5.5810    1.3270  -65.1660 C   0  0  0  0  0  0
    1.8350    0.3410  -61.2710 C   0  0  0  0  0  0
  1  2  1  0  0  0
  1  6  1  0  0  0
  1 17  1  0  0  0
  1 18  1  0  0  0
  2  3  1  0  0  0
  3  4  1  0  0  0
  4  5  1  0  0  0
  5  6  1  0  0  0
  5 19  1  0  0  0
  6  7  1  0  0  0
  7  8  1  0  0  0
  8  9  1  0  0  0
  9 10  1  0  0  0
  9 20  1  0  0  0
 10 11  1  0  0  0
 11 12  1  0  0  0
 12 13  1  0  0  0
 13 14  1  0  0  0
 13 21  1  0  0  0
 14 15  1  0  0  0
 15 16  1  0  0  0
M  END
$$$$
