A


 21 22  0  0  0  0  0  0  0  0999 V2000
   -3.9420   -0.6630   12.3380 P   0  0  0  0  0  0
   -2.3930   -0.0060   12.0930 O   0  0  0  0  0  0
   -4.0530   -1.9910   11.7000 O   0  0  0  0  0  0
   -4.0000   -0.5640   13.9270 O   0  0  0  0  0  0
   -5.2850    0.1630   11.7370 O   0  0  0  0  0  0
   -5.4370    1.5350   12.1840 C   0  0  0  0  0  0
   -7.0440    1.6390   12.4960 C   0  0  0  0  0  0
   -8.0940    0.5980   12.3720 O   0  0  0  0  0  0
   -7.3140    2.1970   13.8410 C   0  0  0  0  0  0
   -6.9510    3.5590   13.9370 O   0  0  0  0  0  0
   -8.8290    1.9380   14.1890 C   0  0  0  0  0  0
   -9.6840    2.9000   13.7990 O   0  0  0  0  0  0
   -9.0380    0.4750   13.4950 C   0  0  0  0  0  0
   -8.7570   -0.7240   14.5360 N   0  0  0  0  0  0
   -7.4870   -1.1640   15.0600 C   0  0  0  0  0  0
   -7.9130   -2.2040   15.8750 N   0  0  0  0  0  0
   -9.3070   -2.4340   15.8980 C   0  0  0  0  0  0
   -9.9990   -3.3430   16.5760 C   0  0  0  0  0  0
   -9.8080   -4.3030   17.4040 O   0  0  0  0  0  0
  -11.5410   -3.2590   16.3140 N   0  0  0  0  0  0
   -9.8030   -1.4860   15.0450 N   0  0  0  0  0  0
  1  3  1  0  0  0
  1  5  1  0  0  0
  1  2  1  0  0  0
  1  4  1  0  0  0
  5  6  1  0  0  0
  6  7  1  0  0  0
  7  8  1  0  0  0
  7  9  1  0  0  0
  8 13  1  0  0  0
  9 11  1  0  0  0
  9 10  1  0  0  0
 11 13  1  0  0  0
 11 12  1  0  0  0
 13 14  1  0  0  0
 14 21  1  0  0  0
 14 15  1  0  0  0
 15 16  1  0  0  0
 16 17  1  0  0  0
 17 18  1  0  0  0
 17 21  1  0  0  0
 18 19  1  0  0  0
 18 20  1  0  0  0
M  END
$$$$
