A


 26 25  0  0  0  0  0  0  0  0999 V2000
   -1.0140   -7.4770  119.0180 N   0  0  0  0  0  0
   -0.9210   -6.3190  119.9280 C   0  0  0  0  0  0
   -0.8100   -5.0620  119.0760 C   0  0  0  0  0  0
   -0.3070   -5.1470  117.9270 O   0  0  0  0  0  0
   -1.2380   -4.0220  119.6130 O   0  0  0  0  0  0
    0.2540   -6.4180  120.9100 C   0  0  0  0  0  0
    0.4030   -5.2140  121.8310 C   0  0  0  0  0  0
   -0.5500   -5.2310  123.0140 C   0  0  0  0  0  0
   -1.4730   -6.0390  123.1220 O   0  0  0  0  0  0
   -0.3500   -4.3090  123.9660 N   0  0  0  0  0  0
   -1.3320   -4.1980  125.0500 C   0  0  0  0  0  0
   -2.6340   -3.5930  124.5770 C   0  0  0  0  0  0
   -2.7250   -2.8510  123.5780 O   0  0  0  0  0  0
   -0.6930   -3.3550  126.1480 C   0  0  0  0  0  0
    0.8490   -4.1190  126.7450 S   0  0  0  0  0  0
    0.8270   -3.4680  128.4380 C   0  0  0  0  0  0
    2.0280   -3.9630  129.2570 C   0  0  0  0  0  0
    2.5050   -2.7590  130.0640 C   0  0  0  0  0  0
    4.0250   -2.6650  129.9380 C   0  0  0  0  0  0
    4.5800   -4.0210  130.4070 C   0  0  0  0  0  0
    6.0670   -3.8180  130.6410 C   0  0  0  0  0  0
   -3.7280   -3.7620  125.3410 N   0  0  0  0  0  0
   -4.8480   -2.9920  124.8270 C   0  0  0  0  0  0
   -6.1630   -3.6910  124.8250 C   0  0  0  0  0  0
   -6.4030   -4.4310  125.7940 O   0  0  0  0  0  0
   -7.0330   -3.4970  123.9600 O   0  0  0  0  0  0
  1  2  1  0  0  0
  2  3  1  0  0  0
  2  6  1  0  0  0
  3  4  1  0  0  0
  3  5  1  0  0  0
  6  7  1  0  0  0
  7  8  1  0  0  0
  8  9  1  0  0  0
  8 10  1  0  0  0
 10 11  1  0  0  0
 11 12  1  0  0  0
 11 14  1  0  0  0
 12 13  1  0  0  0
 12 22  1  0  0  0
 14 15  1  0  0  0
 15 16  1  0  0  0
 16 17  1  0  0  0
 17 18  1  0  0  0
 18 19  1  0  0  0
 19 20  1  0  0  0
 20 21  1  0  0  0
 22 23  1  0  0  0
 23 24  1  0  0  0
 24 25  1  0  0  0
 24 26  1  0  0  0
M  END
$$$$
