A


  4  0  0  0  0  0  0  0  0  0999 V2000
    1.5000    1.5000    6.0000 C   0  0  0  0  0  0
    1.5000    4.5000    6.0000 C   0  0  0  0  0  0
    4.5000    4.5000    6.0000 C   0  0  0  0  0  0
    7.5000    4.5000    6.0000 C   0  0  0  0  0  0
  1  2  1  0  0  0
  2  3  1  0  0  0
  3  4  1  0  0  0
M  END
$$$$
